
---------- Begin Simulation Statistics ----------
simSeconds                                   0.001993                       # Number of seconds simulated (Second)
simTicks                                   1992649500                       # Number of ticks simulated (Tick)
finalTick                                  1992649500                       # Number of ticks from beginning of simulation (restored from checkpoints and never reset) (Tick)
simFreq                                  1000000000000                       # The number of ticks per simulated second ((Tick/Second))
hostSeconds                                    147.77                       # Real time elapsed on the host (Second)
hostTickRate                                 13484873                       # The number of ticks simulated per host second (ticks/s) ((Tick/Second))
hostMemory                                    1208188                       # Number of bytes of host memory used (Byte)
simInsts                                      5515188                       # Number of instructions simulated (Count)
simOps                                       10313306                       # Number of ops (including micro ops) simulated (Count)
hostInstRate                                    37323                       # Simulator instruction rate (inst/s) ((Count/Second))
hostOpRate                                      69793                       # Simulator op (including micro ops) rate (op/s) ((Count/Second))
system.clk_domain.clock                           500                       # Clock period in ticks (Tick)
system.cpu.numCycles                          3985300                       # Number of cpu cycles simulated (Cycle)
system.cpu.numWorkItemsStarted                      0                       # Number of work items this cpu started (Count)
system.cpu.numWorkItemsCompleted                    0                       # Number of work items this cpu completed (Count)
system.cpu.instsAdded                        11324744                       # Number of instructions added to the IQ (excludes non-spec) (Count)
system.cpu.nonSpecInstsAdded                       90                       # Number of non-speculative instructions added to the IQ (Count)
system.cpu.instsIssued                       11073285                       # Number of instructions issued (Count)
system.cpu.squashedInstsIssued                   5188                       # Number of squashed instructions issued (Count)
system.cpu.squashedInstsExamined              1011522                       # Number of squashed instructions iterated over during squash; mainly for profiling (Count)
system.cpu.squashedOperandsExamined           1397823                       # Number of squashed operands that are examined and possibly removed from graph (Count)
system.cpu.squashedNonSpecRemoved                  18                       # Number of squashed non-spec instructions that were removed (Count)
system.cpu.numIssuedDist::samples             3800849                       # Number of insts issued each cycle (Count)
system.cpu.numIssuedDist::mean               2.913371                       # Number of insts issued each cycle (Count)
system.cpu.numIssuedDist::stdev              2.571606                       # Number of insts issued each cycle (Count)
system.cpu.numIssuedDist::underflows                0      0.00%      0.00% # Number of insts issued each cycle (Count)
system.cpu.numIssuedDist::0                   1117215     29.39%     29.39% # Number of insts issued each cycle (Count)
system.cpu.numIssuedDist::1                    297063      7.82%     37.21% # Number of insts issued each cycle (Count)
system.cpu.numIssuedDist::2                    435626     11.46%     48.67% # Number of insts issued each cycle (Count)
system.cpu.numIssuedDist::3                    423689     11.15%     59.82% # Number of insts issued each cycle (Count)
system.cpu.numIssuedDist::4                    380117     10.00%     69.82% # Number of insts issued each cycle (Count)
system.cpu.numIssuedDist::5                    387103     10.18%     80.00% # Number of insts issued each cycle (Count)
system.cpu.numIssuedDist::6                    338599      8.91%     88.91% # Number of insts issued each cycle (Count)
system.cpu.numIssuedDist::7                    225170      5.92%     94.84% # Number of insts issued each cycle (Count)
system.cpu.numIssuedDist::8                    196267      5.16%    100.00% # Number of insts issued each cycle (Count)
system.cpu.numIssuedDist::overflows                 0      0.00%    100.00% # Number of insts issued each cycle (Count)
system.cpu.numIssuedDist::min_value                 0                       # Number of insts issued each cycle (Count)
system.cpu.numIssuedDist::max_value                 8                       # Number of insts issued each cycle (Count)
system.cpu.numIssuedDist::total               3800849                       # Number of insts issued each cycle (Count)
system.cpu.statFuBusy::No_OpClass                   0      0.00%      0.00% # attempts to use FU when none available (Count)
system.cpu.statFuBusy::IntAlu                   99559     75.07%     75.07% # attempts to use FU when none available (Count)
system.cpu.statFuBusy::IntMult                      0      0.00%     75.07% # attempts to use FU when none available (Count)
system.cpu.statFuBusy::IntDiv                       0      0.00%     75.07% # attempts to use FU when none available (Count)
system.cpu.statFuBusy::FloatAdd                     0      0.00%     75.07% # attempts to use FU when none available (Count)
system.cpu.statFuBusy::FloatCmp                     0      0.00%     75.07% # attempts to use FU when none available (Count)
system.cpu.statFuBusy::FloatCvt                     0      0.00%     75.07% # attempts to use FU when none available (Count)
system.cpu.statFuBusy::FloatMult                    0      0.00%     75.07% # attempts to use FU when none available (Count)
system.cpu.statFuBusy::FloatMultAcc                 0      0.00%     75.07% # attempts to use FU when none available (Count)
system.cpu.statFuBusy::FloatDiv                     0      0.00%     75.07% # attempts to use FU when none available (Count)
system.cpu.statFuBusy::FloatMisc                    0      0.00%     75.07% # attempts to use FU when none available (Count)
system.cpu.statFuBusy::FloatSqrt                    0      0.00%     75.07% # attempts to use FU when none available (Count)
system.cpu.statFuBusy::SimdAdd                      2      0.00%     75.07% # attempts to use FU when none available (Count)
system.cpu.statFuBusy::SimdAddAcc                   0      0.00%     75.07% # attempts to use FU when none available (Count)
system.cpu.statFuBusy::SimdAlu                   1025      0.77%     75.84% # attempts to use FU when none available (Count)
system.cpu.statFuBusy::SimdCmp                      0      0.00%     75.84% # attempts to use FU when none available (Count)
system.cpu.statFuBusy::SimdCvt                     57      0.04%     75.88% # attempts to use FU when none available (Count)
system.cpu.statFuBusy::SimdMisc                     5      0.00%     75.89% # attempts to use FU when none available (Count)
system.cpu.statFuBusy::SimdMult                     0      0.00%     75.89% # attempts to use FU when none available (Count)
system.cpu.statFuBusy::SimdMultAcc                  0      0.00%     75.89% # attempts to use FU when none available (Count)
system.cpu.statFuBusy::SimdShift                   10      0.01%     75.89% # attempts to use FU when none available (Count)
system.cpu.statFuBusy::SimdShiftAcc                 0      0.00%     75.89% # attempts to use FU when none available (Count)
system.cpu.statFuBusy::SimdDiv                      0      0.00%     75.89% # attempts to use FU when none available (Count)
system.cpu.statFuBusy::SimdSqrt                     0      0.00%     75.89% # attempts to use FU when none available (Count)
system.cpu.statFuBusy::SimdFloatAdd                 0      0.00%     75.89% # attempts to use FU when none available (Count)
system.cpu.statFuBusy::SimdFloatAlu                 0      0.00%     75.89% # attempts to use FU when none available (Count)
system.cpu.statFuBusy::SimdFloatCmp                 0      0.00%     75.89% # attempts to use FU when none available (Count)
system.cpu.statFuBusy::SimdFloatCvt                 0      0.00%     75.89% # attempts to use FU when none available (Count)
system.cpu.statFuBusy::SimdFloatDiv                 0      0.00%     75.89% # attempts to use FU when none available (Count)
system.cpu.statFuBusy::SimdFloatMisc                0      0.00%     75.89% # attempts to use FU when none available (Count)
system.cpu.statFuBusy::SimdFloatMult                0      0.00%     75.89% # attempts to use FU when none available (Count)
system.cpu.statFuBusy::SimdFloatMultAcc             0      0.00%     75.89% # attempts to use FU when none available (Count)
system.cpu.statFuBusy::SimdFloatSqrt                0      0.00%     75.89% # attempts to use FU when none available (Count)
system.cpu.statFuBusy::SimdReduceAdd                0      0.00%     75.89% # attempts to use FU when none available (Count)
system.cpu.statFuBusy::SimdReduceAlu                0      0.00%     75.89% # attempts to use FU when none available (Count)
system.cpu.statFuBusy::SimdReduceCmp                0      0.00%     75.89% # attempts to use FU when none available (Count)
system.cpu.statFuBusy::SimdFloatReduceAdd            0      0.00%     75.89% # attempts to use FU when none available (Count)
system.cpu.statFuBusy::SimdFloatReduceCmp            0      0.00%     75.89% # attempts to use FU when none available (Count)
system.cpu.statFuBusy::SimdAes                      0      0.00%     75.89% # attempts to use FU when none available (Count)
system.cpu.statFuBusy::SimdAesMix                   0      0.00%     75.89% # attempts to use FU when none available (Count)
system.cpu.statFuBusy::SimdSha1Hash                 0      0.00%     75.89% # attempts to use FU when none available (Count)
system.cpu.statFuBusy::SimdSha1Hash2                0      0.00%     75.89% # attempts to use FU when none available (Count)
system.cpu.statFuBusy::SimdSha256Hash               0      0.00%     75.89% # attempts to use FU when none available (Count)
system.cpu.statFuBusy::SimdSha256Hash2              0      0.00%     75.89% # attempts to use FU when none available (Count)
system.cpu.statFuBusy::SimdShaSigma2                0      0.00%     75.89% # attempts to use FU when none available (Count)
system.cpu.statFuBusy::SimdShaSigma3                0      0.00%     75.89% # attempts to use FU when none available (Count)
system.cpu.statFuBusy::SimdPredAlu                  0      0.00%     75.89% # attempts to use FU when none available (Count)
system.cpu.statFuBusy::MemRead                  24578     18.53%     94.43% # attempts to use FU when none available (Count)
system.cpu.statFuBusy::MemWrite                  1859      1.40%     95.83% # attempts to use FU when none available (Count)
system.cpu.statFuBusy::FloatMemRead               552      0.42%     96.24% # attempts to use FU when none available (Count)
system.cpu.statFuBusy::FloatMemWrite             4982      3.76%    100.00% # attempts to use FU when none available (Count)
system.cpu.statFuBusy::IprAccess                    0      0.00%    100.00% # attempts to use FU when none available (Count)
system.cpu.statFuBusy::InstPrefetch                 0      0.00%    100.00% # attempts to use FU when none available (Count)
system.cpu.statIssuedInstType_0::No_OpClass       149876      1.35%      1.35% # Number of instructions issued per FU type, per thread (Count)
system.cpu.statIssuedInstType_0::IntAlu       8293610     74.90%     76.25% # Number of instructions issued per FU type, per thread (Count)
system.cpu.statIssuedInstType_0::IntMult        15248      0.14%     76.39% # Number of instructions issued per FU type, per thread (Count)
system.cpu.statIssuedInstType_0::IntDiv         66891      0.60%     76.99% # Number of instructions issued per FU type, per thread (Count)
system.cpu.statIssuedInstType_0::FloatAdd        68313      0.62%     77.61% # Number of instructions issued per FU type, per thread (Count)
system.cpu.statIssuedInstType_0::FloatCmp            0      0.00%     77.61% # Number of instructions issued per FU type, per thread (Count)
system.cpu.statIssuedInstType_0::FloatCvt           96      0.00%     77.61% # Number of instructions issued per FU type, per thread (Count)
system.cpu.statIssuedInstType_0::FloatMult            0      0.00%     77.61% # Number of instructions issued per FU type, per thread (Count)
system.cpu.statIssuedInstType_0::FloatMultAcc            0      0.00%     77.61% # Number of instructions issued per FU type, per thread (Count)
system.cpu.statIssuedInstType_0::FloatDiv            0      0.00%     77.61% # Number of instructions issued per FU type, per thread (Count)
system.cpu.statIssuedInstType_0::FloatMisc            0      0.00%     77.61% # Number of instructions issued per FU type, per thread (Count)
system.cpu.statIssuedInstType_0::FloatSqrt            0      0.00%     77.61% # Number of instructions issued per FU type, per thread (Count)
system.cpu.statIssuedInstType_0::SimdAdd          929      0.01%     77.62% # Number of instructions issued per FU type, per thread (Count)
system.cpu.statIssuedInstType_0::SimdAddAcc            0      0.00%     77.62% # Number of instructions issued per FU type, per thread (Count)
system.cpu.statIssuedInstType_0::SimdAlu        20221      0.18%     77.80% # Number of instructions issued per FU type, per thread (Count)
system.cpu.statIssuedInstType_0::SimdCmp            0      0.00%     77.80% # Number of instructions issued per FU type, per thread (Count)
system.cpu.statIssuedInstType_0::SimdCvt        12364      0.11%     77.91% # Number of instructions issued per FU type, per thread (Count)
system.cpu.statIssuedInstType_0::SimdMisc        28723      0.26%     78.17% # Number of instructions issued per FU type, per thread (Count)
system.cpu.statIssuedInstType_0::SimdMult            0      0.00%     78.17% # Number of instructions issued per FU type, per thread (Count)
system.cpu.statIssuedInstType_0::SimdMultAcc            0      0.00%     78.17% # Number of instructions issued per FU type, per thread (Count)
system.cpu.statIssuedInstType_0::SimdShift          820      0.01%     78.18% # Number of instructions issued per FU type, per thread (Count)
system.cpu.statIssuedInstType_0::SimdShiftAcc            0      0.00%     78.18% # Number of instructions issued per FU type, per thread (Count)
system.cpu.statIssuedInstType_0::SimdDiv            0      0.00%     78.18% # Number of instructions issued per FU type, per thread (Count)
system.cpu.statIssuedInstType_0::SimdSqrt            0      0.00%     78.18% # Number of instructions issued per FU type, per thread (Count)
system.cpu.statIssuedInstType_0::SimdFloatAdd            0      0.00%     78.18% # Number of instructions issued per FU type, per thread (Count)
system.cpu.statIssuedInstType_0::SimdFloatAlu            0      0.00%     78.18% # Number of instructions issued per FU type, per thread (Count)
system.cpu.statIssuedInstType_0::SimdFloatCmp            0      0.00%     78.18% # Number of instructions issued per FU type, per thread (Count)
system.cpu.statIssuedInstType_0::SimdFloatCvt        19262      0.17%     78.35% # Number of instructions issued per FU type, per thread (Count)
system.cpu.statIssuedInstType_0::SimdFloatDiv            0      0.00%     78.35% # Number of instructions issued per FU type, per thread (Count)
system.cpu.statIssuedInstType_0::SimdFloatMisc            0      0.00%     78.35% # Number of instructions issued per FU type, per thread (Count)
system.cpu.statIssuedInstType_0::SimdFloatMult            0      0.00%     78.35% # Number of instructions issued per FU type, per thread (Count)
system.cpu.statIssuedInstType_0::SimdFloatMultAcc            0      0.00%     78.35% # Number of instructions issued per FU type, per thread (Count)
system.cpu.statIssuedInstType_0::SimdFloatSqrt            0      0.00%     78.35% # Number of instructions issued per FU type, per thread (Count)
system.cpu.statIssuedInstType_0::SimdReduceAdd            0      0.00%     78.35% # Number of instructions issued per FU type, per thread (Count)
system.cpu.statIssuedInstType_0::SimdReduceAlu            0      0.00%     78.35% # Number of instructions issued per FU type, per thread (Count)
system.cpu.statIssuedInstType_0::SimdReduceCmp            0      0.00%     78.35% # Number of instructions issued per FU type, per thread (Count)
system.cpu.statIssuedInstType_0::SimdFloatReduceAdd            0      0.00%     78.35% # Number of instructions issued per FU type, per thread (Count)
system.cpu.statIssuedInstType_0::SimdFloatReduceCmp            0      0.00%     78.35% # Number of instructions issued per FU type, per thread (Count)
system.cpu.statIssuedInstType_0::SimdAes            0      0.00%     78.35% # Number of instructions issued per FU type, per thread (Count)
system.cpu.statIssuedInstType_0::SimdAesMix            0      0.00%     78.35% # Number of instructions issued per FU type, per thread (Count)
system.cpu.statIssuedInstType_0::SimdSha1Hash            0      0.00%     78.35% # Number of instructions issued per FU type, per thread (Count)
system.cpu.statIssuedInstType_0::SimdSha1Hash2            0      0.00%     78.35% # Number of instructions issued per FU type, per thread (Count)
system.cpu.statIssuedInstType_0::SimdSha256Hash            0      0.00%     78.35% # Number of instructions issued per FU type, per thread (Count)
system.cpu.statIssuedInstType_0::SimdSha256Hash2            0      0.00%     78.35% # Number of instructions issued per FU type, per thread (Count)
system.cpu.statIssuedInstType_0::SimdShaSigma2            0      0.00%     78.35% # Number of instructions issued per FU type, per thread (Count)
system.cpu.statIssuedInstType_0::SimdShaSigma3            0      0.00%     78.35% # Number of instructions issued per FU type, per thread (Count)
system.cpu.statIssuedInstType_0::SimdPredAlu            0      0.00%     78.35% # Number of instructions issued per FU type, per thread (Count)
system.cpu.statIssuedInstType_0::MemRead      1462835     13.21%     91.56% # Number of instructions issued per FU type, per thread (Count)
system.cpu.statIssuedInstType_0::MemWrite       820002      7.41%     98.97% # Number of instructions issued per FU type, per thread (Count)
system.cpu.statIssuedInstType_0::FloatMemRead        78248      0.71%     99.68% # Number of instructions issued per FU type, per thread (Count)
system.cpu.statIssuedInstType_0::FloatMemWrite        35847      0.32%    100.00% # Number of instructions issued per FU type, per thread (Count)
system.cpu.statIssuedInstType_0::IprAccess            0      0.00%    100.00% # Number of instructions issued per FU type, per thread (Count)
system.cpu.statIssuedInstType_0::InstPrefetch            0      0.00%    100.00% # Number of instructions issued per FU type, per thread (Count)
system.cpu.statIssuedInstType_0::total       11073285                       # Number of instructions issued per FU type, per thread (Count)
system.cpu.issueRate                         2.778532                       # Inst issue rate ((Count/Cycle))
system.cpu.fuBusy                              132629                       # FU busy when requested (Count)
system.cpu.fuBusyRate                        0.011977                       # FU busy rate (busy events/executed inst) ((Count/Count))
system.cpu.intInstQueueReads                 25529892                       # Number of integer instruction queue reads (Count)
system.cpu.intInstQueueWrites                11940268                       # Number of integer instruction queue writes (Count)
system.cpu.intInstQueueWakeupAccesses        10718848                       # Number of integer instruction queue wakeup accesses (Count)
system.cpu.fpInstQueueReads                    555344                       # Number of floating instruction queue reads (Count)
system.cpu.fpInstQueueWrites                   396279                       # Number of floating instruction queue writes (Count)
system.cpu.fpInstQueueWakeupAccesses           258690                       # Number of floating instruction queue wakeup accesses (Count)
system.cpu.vecInstQueueReads                        0                       # Number of vector instruction queue reads (Count)
system.cpu.vecInstQueueWrites                       0                       # Number of vector instruction queue writes (Count)
system.cpu.vecInstQueueWakeupAccesses               0                       # Number of vector instruction queue wakeup accesses (Count)
system.cpu.intAluAccesses                    10775091                       # Number of integer alu accesses (Count)
system.cpu.fpAluAccesses                       280947                       # Number of floating point alu accesses (Count)
system.cpu.vecAluAccesses                           0                       # Number of vector alu accesses (Count)
system.cpu.numInsts                          11009012                       # Number of executed instructions (Count)
system.cpu.numLoadInsts                       1523410                       # Number of load instructions executed (Count)
system.cpu.numSquashedInsts                     64273                       # Number of squashed instructions skipped in execute (Count)
system.cpu.numSwp                                   0                       # Number of swp insts executed (Count)
system.cpu.numNop                                   0                       # Number of nop insts executed (Count)
system.cpu.numRefs                            2370090                       # Number of memory reference insts executed (Count)
system.cpu.numBranches                        1200306                       # Number of branches executed (Count)
system.cpu.numStoreInsts                       846680                       # Number of stores executed (Count)
system.cpu.numRate                           2.762405                       # Inst execution rate ((Count/Cycle))
system.cpu.timesIdled                           11541                       # Number of times that the entire CPU went into an idle state and unscheduled itself (Count)
system.cpu.idleCycles                          184451                       # Total number of cycles that the CPU has spent unscheduled due to idling (Cycle)
system.cpu.committedInsts                     5515188                       # Number of Instructions Simulated (Count)
system.cpu.committedOps                      10313306                       # Number of Ops (including micro ops) Simulated (Count)
system.cpu.cpi                               0.722605                       # CPI: Cycles Per Instruction ((Cycle/Count))
system.cpu.totalCpi                          0.722605                       # CPI: Total CPI of All Threads ((Cycle/Count))
system.cpu.ipc                               1.383883                       # IPC: Instructions Per Cycle ((Count/Cycle))
system.cpu.totalIpc                          1.383883                       # IPC: Total IPC of All Threads ((Count/Cycle))
system.cpu.intRegfileReads                   13913543                       # Number of integer regfile reads (Count)
system.cpu.intRegfileWrites                   7993836                       # Number of integer regfile writes (Count)
system.cpu.fpRegfileReads                      218611                       # Number of floating regfile reads (Count)
system.cpu.fpRegfileWrites                     198737                       # Number of floating regfile writes (Count)
system.cpu.ccRegfileReads                     5412581                       # number of cc regfile reads (Count)
system.cpu.ccRegfileWrites                    3300501                       # number of cc regfile writes (Count)
system.cpu.miscRegfileReads                   4786658                       # number of misc regfile reads (Count)
system.cpu.miscRegfileWrites                       54                       # number of misc regfile writes (Count)
system.cpu.MemDepUnit__0.insertedLoads        1575265                       # Number of loads inserted to the mem dependence unit. (Count)
system.cpu.MemDepUnit__0.insertedStores        876591                       # Number of stores inserted to the mem dependence unit. (Count)
system.cpu.MemDepUnit__0.conflictingLoads       125881                       # Number of conflicting loads. (Count)
system.cpu.MemDepUnit__0.conflictingStores        37560                       # Number of conflicting stores. (Count)
system.cpu.MemDepUnit__1.insertedLoads              0                       # Number of loads inserted to the mem dependence unit. (Count)
system.cpu.MemDepUnit__1.insertedStores             0                       # Number of stores inserted to the mem dependence unit. (Count)
system.cpu.MemDepUnit__1.conflictingLoads            0                       # Number of conflicting loads. (Count)
system.cpu.MemDepUnit__1.conflictingStores            0                       # Number of conflicting stores. (Count)
system.cpu.MemDepUnit__2.insertedLoads              0                       # Number of loads inserted to the mem dependence unit. (Count)
system.cpu.MemDepUnit__2.insertedStores             0                       # Number of stores inserted to the mem dependence unit. (Count)
system.cpu.MemDepUnit__2.conflictingLoads            0                       # Number of conflicting loads. (Count)
system.cpu.MemDepUnit__2.conflictingStores            0                       # Number of conflicting stores. (Count)
system.cpu.MemDepUnit__3.insertedLoads              0                       # Number of loads inserted to the mem dependence unit. (Count)
system.cpu.MemDepUnit__3.insertedStores             0                       # Number of stores inserted to the mem dependence unit. (Count)
system.cpu.MemDepUnit__3.conflictingLoads            0                       # Number of conflicting loads. (Count)
system.cpu.MemDepUnit__3.conflictingStores            0                       # Number of conflicting stores. (Count)
system.cpu.branchPred.lookups                 1319053                       # Number of BP lookups (Count)
system.cpu.branchPred.condPredicted            949335                       # Number of conditional branches predicted (Count)
system.cpu.branchPred.condIncorrect             30760                       # Number of conditional branches incorrect (Count)
system.cpu.branchPred.BTBLookups               548475                       # Number of BTB lookups (Count)
system.cpu.branchPred.BTBUpdates                20633                       # Number of BTB updates (Count)
system.cpu.branchPred.BTBHits                  544065                       # Number of BTB hits (Count)
system.cpu.branchPred.BTBHitRatio            0.991960                       # BTB Hit Ratio (Ratio)
system.cpu.branchPred.RASUsed                  106114                       # Number of times the RAS was used to get a target. (Count)
system.cpu.branchPred.RASIncorrect                 14                       # Number of incorrect RAS predictions. (Count)
system.cpu.branchPred.indirectLookups           51710                       # Number of indirect predictor lookups. (Count)
system.cpu.branchPred.indirectHits              36659                       # Number of indirect target hits. (Count)
system.cpu.branchPred.indirectMisses            15051                       # Number of indirect misses. (Count)
system.cpu.branchPred.indirectMispredicted         2420                       # Number of mispredicted indirect branches. (Count)
system.cpu.commit.commitSquashedInsts          969647                       # The number of squashed insts skipped by commit (Count)
system.cpu.commit.commitNonSpecStalls              72                       # The number of times commit has been forced to stall to communicate backwards (Count)
system.cpu.commit.branchMispredicts             25040                       # The number of times a branch was mispredicted (Count)
system.cpu.commit.numCommittedDist::samples      3662385                       # Number of insts commited each cycle (Count)
system.cpu.commit.numCommittedDist::mean     2.816008                       # Number of insts commited each cycle (Count)
system.cpu.commit.numCommittedDist::stdev     2.954521                       # Number of insts commited each cycle (Count)
system.cpu.commit.numCommittedDist::underflows            0      0.00%      0.00% # Number of insts commited each cycle (Count)
system.cpu.commit.numCommittedDist::0         1191819     32.54%     32.54% # Number of insts commited each cycle (Count)
system.cpu.commit.numCommittedDist::1          523179     14.29%     46.83% # Number of insts commited each cycle (Count)
system.cpu.commit.numCommittedDist::2          327682      8.95%     55.77% # Number of insts commited each cycle (Count)
system.cpu.commit.numCommittedDist::3          498240     13.60%     69.38% # Number of insts commited each cycle (Count)
system.cpu.commit.numCommittedDist::4          150948      4.12%     73.50% # Number of insts commited each cycle (Count)
system.cpu.commit.numCommittedDist::5          153522      4.19%     77.69% # Number of insts commited each cycle (Count)
system.cpu.commit.numCommittedDist::6           81416      2.22%     79.92% # Number of insts commited each cycle (Count)
system.cpu.commit.numCommittedDist::7          104487      2.85%     82.77% # Number of insts commited each cycle (Count)
system.cpu.commit.numCommittedDist::8          631092     17.23%    100.00% # Number of insts commited each cycle (Count)
system.cpu.commit.numCommittedDist::overflows            0      0.00%    100.00% # Number of insts commited each cycle (Count)
system.cpu.commit.numCommittedDist::min_value            0                       # Number of insts commited each cycle (Count)
system.cpu.commit.numCommittedDist::max_value            8                       # Number of insts commited each cycle (Count)
system.cpu.commit.numCommittedDist::total      3662385                       # Number of insts commited each cycle (Count)
system.cpu.commit.instsCommitted              5515188                       # Number of instructions committed (Count)
system.cpu.commit.opsCommitted               10313306                       # Number of ops (including micro ops) committed (Count)
system.cpu.commit.memRefs                     2231449                       # Number of memory references committed (Count)
system.cpu.commit.loads                       1409747                       # Number of loads committed (Count)
system.cpu.commit.amos                              0                       # Number of atomic instructions committed (Count)
system.cpu.commit.membars                          12                       # Number of memory barriers committed (Count)
system.cpu.commit.branches                    1149023                       # Number of branches committed (Count)
system.cpu.commit.vectorInstructions                0                       # Number of committed Vector instructions. (Count)
system.cpu.commit.floating                     212709                       # Number of committed floating point instructions. (Count)
system.cpu.commit.integer                    10057733                       # Number of committed integer instructions. (Count)
system.cpu.commit.functionCalls                 96500                       # Number of function calls committed. (Count)
system.cpu.commit.committedInstType_0::No_OpClass       126631      1.23%      1.23% # Class of committed instruction (Count)
system.cpu.commit.committedInstType_0::IntAlu      7756710     75.21%     76.44% # Class of committed instruction (Count)
system.cpu.commit.committedInstType_0::IntMult        14350      0.14%     76.58% # Class of committed instruction (Count)
system.cpu.commit.committedInstType_0::IntDiv        66663      0.65%     77.22% # Class of committed instruction (Count)
system.cpu.commit.committedInstType_0::FloatAdd        40043      0.39%     77.61% # Class of committed instruction (Count)
system.cpu.commit.committedInstType_0::FloatCmp            0      0.00%     77.61% # Class of committed instruction (Count)
system.cpu.commit.committedInstType_0::FloatCvt           96      0.00%     77.61% # Class of committed instruction (Count)
system.cpu.commit.committedInstType_0::FloatMult            0      0.00%     77.61% # Class of committed instruction (Count)
system.cpu.commit.committedInstType_0::FloatMultAcc            0      0.00%     77.61% # Class of committed instruction (Count)
system.cpu.commit.committedInstType_0::FloatDiv            0      0.00%     77.61% # Class of committed instruction (Count)
system.cpu.commit.committedInstType_0::FloatMisc            0      0.00%     77.61% # Class of committed instruction (Count)
system.cpu.commit.committedInstType_0::FloatSqrt            0      0.00%     77.61% # Class of committed instruction (Count)
system.cpu.commit.committedInstType_0::SimdAdd          626      0.01%     77.62% # Class of committed instruction (Count)
system.cpu.commit.committedInstType_0::SimdAddAcc            0      0.00%     77.62% # Class of committed instruction (Count)
system.cpu.commit.committedInstType_0::SimdAlu        19178      0.19%     77.81% # Class of committed instruction (Count)
system.cpu.commit.committedInstType_0::SimdCmp            0      0.00%     77.81% # Class of committed instruction (Count)
system.cpu.commit.committedInstType_0::SimdCvt        11356      0.11%     77.92% # Class of committed instruction (Count)
system.cpu.commit.committedInstType_0::SimdMisc        28250      0.27%     78.19% # Class of committed instruction (Count)
system.cpu.commit.committedInstType_0::SimdMult            0      0.00%     78.19% # Class of committed instruction (Count)
system.cpu.commit.committedInstType_0::SimdMultAcc            0      0.00%     78.19% # Class of committed instruction (Count)
system.cpu.commit.committedInstType_0::SimdShift          337      0.00%     78.19% # Class of committed instruction (Count)
system.cpu.commit.committedInstType_0::SimdShiftAcc            0      0.00%     78.19% # Class of committed instruction (Count)
system.cpu.commit.committedInstType_0::SimdDiv            0      0.00%     78.19% # Class of committed instruction (Count)
system.cpu.commit.committedInstType_0::SimdSqrt            0      0.00%     78.19% # Class of committed instruction (Count)
system.cpu.commit.committedInstType_0::SimdFloatAdd            0      0.00%     78.19% # Class of committed instruction (Count)
system.cpu.commit.committedInstType_0::SimdFloatAlu            0      0.00%     78.19% # Class of committed instruction (Count)
system.cpu.commit.committedInstType_0::SimdFloatCmp            0      0.00%     78.19% # Class of committed instruction (Count)
system.cpu.commit.committedInstType_0::SimdFloatCvt        17617      0.17%     78.36% # Class of committed instruction (Count)
system.cpu.commit.committedInstType_0::SimdFloatDiv            0      0.00%     78.36% # Class of committed instruction (Count)
system.cpu.commit.committedInstType_0::SimdFloatMisc            0      0.00%     78.36% # Class of committed instruction (Count)
system.cpu.commit.committedInstType_0::SimdFloatMult            0      0.00%     78.36% # Class of committed instruction (Count)
system.cpu.commit.committedInstType_0::SimdFloatMultAcc            0      0.00%     78.36% # Class of committed instruction (Count)
system.cpu.commit.committedInstType_0::SimdFloatSqrt            0      0.00%     78.36% # Class of committed instruction (Count)
system.cpu.commit.committedInstType_0::SimdReduceAdd            0      0.00%     78.36% # Class of committed instruction (Count)
system.cpu.commit.committedInstType_0::SimdReduceAlu            0      0.00%     78.36% # Class of committed instruction (Count)
system.cpu.commit.committedInstType_0::SimdReduceCmp            0      0.00%     78.36% # Class of committed instruction (Count)
system.cpu.commit.committedInstType_0::SimdFloatReduceAdd            0      0.00%     78.36% # Class of committed instruction (Count)
system.cpu.commit.committedInstType_0::SimdFloatReduceCmp            0      0.00%     78.36% # Class of committed instruction (Count)
system.cpu.commit.committedInstType_0::SimdAes            0      0.00%     78.36% # Class of committed instruction (Count)
system.cpu.commit.committedInstType_0::SimdAesMix            0      0.00%     78.36% # Class of committed instruction (Count)
system.cpu.commit.committedInstType_0::SimdSha1Hash            0      0.00%     78.36% # Class of committed instruction (Count)
system.cpu.commit.committedInstType_0::SimdSha1Hash2            0      0.00%     78.36% # Class of committed instruction (Count)
system.cpu.commit.committedInstType_0::SimdSha256Hash            0      0.00%     78.36% # Class of committed instruction (Count)
system.cpu.commit.committedInstType_0::SimdSha256Hash2            0      0.00%     78.36% # Class of committed instruction (Count)
system.cpu.commit.committedInstType_0::SimdShaSigma2            0      0.00%     78.36% # Class of committed instruction (Count)
system.cpu.commit.committedInstType_0::SimdShaSigma3            0      0.00%     78.36% # Class of committed instruction (Count)
system.cpu.commit.committedInstType_0::SimdPredAlu            0      0.00%     78.36% # Class of committed instruction (Count)
system.cpu.commit.committedInstType_0::MemRead      1356776     13.16%     91.52% # Class of committed instruction (Count)
system.cpu.commit.committedInstType_0::MemWrite       788847      7.65%     99.17% # Class of committed instruction (Count)
system.cpu.commit.committedInstType_0::FloatMemRead        52971      0.51%     99.68% # Class of committed instruction (Count)
system.cpu.commit.committedInstType_0::FloatMemWrite        32855      0.32%    100.00% # Class of committed instruction (Count)
system.cpu.commit.committedInstType_0::IprAccess            0      0.00%    100.00% # Class of committed instruction (Count)
system.cpu.commit.committedInstType_0::InstPrefetch            0      0.00%    100.00% # Class of committed instruction (Count)
system.cpu.commit.committedInstType_0::total     10313306                       # Class of committed instruction (Count)
system.cpu.commit.commitEligibleSamples        631092                       # number cycles where commit BW limit reached (Cycle)
system.cpu.dcache.demandHits::cpu.data        2043911                       # number of demand (read+write) hits (Count)
system.cpu.dcache.demandHits::total           2043911                       # number of demand (read+write) hits (Count)
system.cpu.dcache.overallHits::cpu.data       2043911                       # number of overall hits (Count)
system.cpu.dcache.overallHits::total          2043911                       # number of overall hits (Count)
system.cpu.dcache.demandMisses::cpu.data        14619                       # number of demand (read+write) misses (Count)
system.cpu.dcache.demandMisses::total           14619                       # number of demand (read+write) misses (Count)
system.cpu.dcache.overallMisses::cpu.data        14619                       # number of overall misses (Count)
system.cpu.dcache.overallMisses::total          14619                       # number of overall misses (Count)
system.cpu.dcache.demandMissLatency::cpu.data    796705498                       # number of demand (read+write) miss ticks (Tick)
system.cpu.dcache.demandMissLatency::total    796705498                       # number of demand (read+write) miss ticks (Tick)
system.cpu.dcache.overallMissLatency::cpu.data    796705498                       # number of overall miss ticks (Tick)
system.cpu.dcache.overallMissLatency::total    796705498                       # number of overall miss ticks (Tick)
system.cpu.dcache.demandAccesses::cpu.data      2058530                       # number of demand (read+write) accesses (Count)
system.cpu.dcache.demandAccesses::total       2058530                       # number of demand (read+write) accesses (Count)
system.cpu.dcache.overallAccesses::cpu.data      2058530                       # number of overall (read+write) accesses (Count)
system.cpu.dcache.overallAccesses::total      2058530                       # number of overall (read+write) accesses (Count)
system.cpu.dcache.demandMissRate::cpu.data     0.007102                       # miss rate for demand accesses (Ratio)
system.cpu.dcache.demandMissRate::total      0.007102                       # miss rate for demand accesses (Ratio)
system.cpu.dcache.overallMissRate::cpu.data     0.007102                       # miss rate for overall accesses (Ratio)
system.cpu.dcache.overallMissRate::total     0.007102                       # miss rate for overall accesses (Ratio)
system.cpu.dcache.demandAvgMissLatency::cpu.data 54497.947739                       # average overall miss latency in ticks ((Tick/Count))
system.cpu.dcache.demandAvgMissLatency::total 54497.947739                       # average overall miss latency in ticks ((Tick/Count))
system.cpu.dcache.overallAvgMissLatency::cpu.data 54497.947739                       # average overall miss latency ((Tick/Count))
system.cpu.dcache.overallAvgMissLatency::total 54497.947739                       # average overall miss latency ((Tick/Count))
system.cpu.dcache.blockedCycles::no_mshrs        17232                       # number of cycles access was blocked (Cycle)
system.cpu.dcache.blockedCycles::no_targets            6                       # number of cycles access was blocked (Cycle)
system.cpu.dcache.blockedCauses::no_mshrs          447                       # number of times access was blocked (Count)
system.cpu.dcache.blockedCauses::no_targets            2                       # number of times access was blocked (Count)
system.cpu.dcache.avgBlocked::no_mshrs      38.550336                       # average number of cycles each access was blocked ((Cycle/Count))
system.cpu.dcache.avgBlocked::no_targets            3                       # average number of cycles each access was blocked ((Cycle/Count))
system.cpu.dcache.writebacks::writebacks         1059                       # number of writebacks (Count)
system.cpu.dcache.writebacks::total              1059                       # number of writebacks (Count)
system.cpu.dcache.demandMshrHits::cpu.data        10648                       # number of demand (read+write) MSHR hits (Count)
system.cpu.dcache.demandMshrHits::total         10648                       # number of demand (read+write) MSHR hits (Count)
system.cpu.dcache.overallMshrHits::cpu.data        10648                       # number of overall MSHR hits (Count)
system.cpu.dcache.overallMshrHits::total        10648                       # number of overall MSHR hits (Count)
system.cpu.dcache.demandMshrMisses::cpu.data         3971                       # number of demand (read+write) MSHR misses (Count)
system.cpu.dcache.demandMshrMisses::total         3971                       # number of demand (read+write) MSHR misses (Count)
system.cpu.dcache.overallMshrMisses::cpu.data         3971                       # number of overall MSHR misses (Count)
system.cpu.dcache.overallMshrMisses::total         3971                       # number of overall MSHR misses (Count)
system.cpu.dcache.demandMshrMissLatency::cpu.data    229109498                       # number of demand (read+write) MSHR miss ticks (Tick)
system.cpu.dcache.demandMshrMissLatency::total    229109498                       # number of demand (read+write) MSHR miss ticks (Tick)
system.cpu.dcache.overallMshrMissLatency::cpu.data    229109498                       # number of overall MSHR miss ticks (Tick)
system.cpu.dcache.overallMshrMissLatency::total    229109498                       # number of overall MSHR miss ticks (Tick)
system.cpu.dcache.demandMshrMissRate::cpu.data     0.001929                       # mshr miss ratio for demand accesses (Ratio)
system.cpu.dcache.demandMshrMissRate::total     0.001929                       # mshr miss ratio for demand accesses (Ratio)
system.cpu.dcache.overallMshrMissRate::cpu.data     0.001929                       # mshr miss ratio for overall accesses (Ratio)
system.cpu.dcache.overallMshrMissRate::total     0.001929                       # mshr miss ratio for overall accesses (Ratio)
system.cpu.dcache.demandAvgMshrMissLatency::cpu.data 57695.668094                       # average overall mshr miss latency ((Tick/Count))
system.cpu.dcache.demandAvgMshrMissLatency::total 57695.668094                       # average overall mshr miss latency ((Tick/Count))
system.cpu.dcache.overallAvgMshrMissLatency::cpu.data 57695.668094                       # average overall mshr miss latency ((Tick/Count))
system.cpu.dcache.overallAvgMshrMissLatency::total 57695.668094                       # average overall mshr miss latency ((Tick/Count))
system.cpu.dcache.replacements                   3458                       # number of replacements (Count)
system.cpu.dcache.LockedRMWReadReq.hits::cpu.data            6                       # number of LockedRMWReadReq hits (Count)
system.cpu.dcache.LockedRMWReadReq.hits::total            6                       # number of LockedRMWReadReq hits (Count)
system.cpu.dcache.LockedRMWReadReq.accesses::cpu.data            6                       # number of LockedRMWReadReq accesses(hits+misses) (Count)
system.cpu.dcache.LockedRMWReadReq.accesses::total            6                       # number of LockedRMWReadReq accesses(hits+misses) (Count)
system.cpu.dcache.LockedRMWReadReq.mshrMissLatency::cpu.data        22500                       # number of LockedRMWReadReq MSHR miss ticks (Tick)
system.cpu.dcache.LockedRMWReadReq.mshrMissLatency::total        22500                       # number of LockedRMWReadReq MSHR miss ticks (Tick)
system.cpu.dcache.LockedRMWReadReq.avgMshrMissLatency::cpu.data          inf                       # average LockedRMWReadReq mshr miss latency ((Tick/Count))
system.cpu.dcache.LockedRMWReadReq.avgMshrMissLatency::total          inf                       # average LockedRMWReadReq mshr miss latency ((Tick/Count))
system.cpu.dcache.LockedRMWWriteReq.hits::cpu.data            6                       # number of LockedRMWWriteReq hits (Count)
system.cpu.dcache.LockedRMWWriteReq.hits::total            6                       # number of LockedRMWWriteReq hits (Count)
system.cpu.dcache.LockedRMWWriteReq.accesses::cpu.data            6                       # number of LockedRMWWriteReq accesses(hits+misses) (Count)
system.cpu.dcache.LockedRMWWriteReq.accesses::total            6                       # number of LockedRMWWriteReq accesses(hits+misses) (Count)
system.cpu.dcache.ReadReq.hits::cpu.data      1223074                       # number of ReadReq hits (Count)
system.cpu.dcache.ReadReq.hits::total         1223074                       # number of ReadReq hits (Count)
system.cpu.dcache.ReadReq.misses::cpu.data        13758                       # number of ReadReq misses (Count)
system.cpu.dcache.ReadReq.misses::total         13758                       # number of ReadReq misses (Count)
system.cpu.dcache.ReadReq.missLatency::cpu.data    740722500                       # number of ReadReq miss ticks (Tick)
system.cpu.dcache.ReadReq.missLatency::total    740722500                       # number of ReadReq miss ticks (Tick)
system.cpu.dcache.ReadReq.accesses::cpu.data      1236832                       # number of ReadReq accesses(hits+misses) (Count)
system.cpu.dcache.ReadReq.accesses::total      1236832                       # number of ReadReq accesses(hits+misses) (Count)
system.cpu.dcache.ReadReq.missRate::cpu.data     0.011124                       # miss rate for ReadReq accesses (Ratio)
system.cpu.dcache.ReadReq.missRate::total     0.011124                       # miss rate for ReadReq accesses (Ratio)
system.cpu.dcache.ReadReq.avgMissLatency::cpu.data 53839.402529                       # average ReadReq miss latency ((Tick/Count))
system.cpu.dcache.ReadReq.avgMissLatency::total 53839.402529                       # average ReadReq miss latency ((Tick/Count))
system.cpu.dcache.ReadReq.mshrHits::cpu.data        10644                       # number of ReadReq MSHR hits (Count)
system.cpu.dcache.ReadReq.mshrHits::total        10644                       # number of ReadReq MSHR hits (Count)
system.cpu.dcache.ReadReq.mshrMisses::cpu.data         3114                       # number of ReadReq MSHR misses (Count)
system.cpu.dcache.ReadReq.mshrMisses::total         3114                       # number of ReadReq MSHR misses (Count)
system.cpu.dcache.ReadReq.mshrMissLatency::cpu.data    174187500                       # number of ReadReq MSHR miss ticks (Tick)
system.cpu.dcache.ReadReq.mshrMissLatency::total    174187500                       # number of ReadReq MSHR miss ticks (Tick)
system.cpu.dcache.ReadReq.mshrMissRate::cpu.data     0.002518                       # mshr miss rate for ReadReq accesses (Ratio)
system.cpu.dcache.ReadReq.mshrMissRate::total     0.002518                       # mshr miss rate for ReadReq accesses (Ratio)
system.cpu.dcache.ReadReq.avgMshrMissLatency::cpu.data 55936.897881                       # average ReadReq mshr miss latency ((Tick/Count))
system.cpu.dcache.ReadReq.avgMshrMissLatency::total 55936.897881                       # average ReadReq mshr miss latency ((Tick/Count))
system.cpu.dcache.WriteReq.hits::cpu.data       820837                       # number of WriteReq hits (Count)
system.cpu.dcache.WriteReq.hits::total         820837                       # number of WriteReq hits (Count)
system.cpu.dcache.WriteReq.misses::cpu.data          861                       # number of WriteReq misses (Count)
system.cpu.dcache.WriteReq.misses::total          861                       # number of WriteReq misses (Count)
system.cpu.dcache.WriteReq.missLatency::cpu.data     55982998                       # number of WriteReq miss ticks (Tick)
system.cpu.dcache.WriteReq.missLatency::total     55982998                       # number of WriteReq miss ticks (Tick)
system.cpu.dcache.WriteReq.accesses::cpu.data       821698                       # number of WriteReq accesses(hits+misses) (Count)
system.cpu.dcache.WriteReq.accesses::total       821698                       # number of WriteReq accesses(hits+misses) (Count)
system.cpu.dcache.WriteReq.missRate::cpu.data     0.001048                       # miss rate for WriteReq accesses (Ratio)
system.cpu.dcache.WriteReq.missRate::total     0.001048                       # miss rate for WriteReq accesses (Ratio)
system.cpu.dcache.WriteReq.avgMissLatency::cpu.data 65020.903600                       # average WriteReq miss latency ((Tick/Count))
system.cpu.dcache.WriteReq.avgMissLatency::total 65020.903600                       # average WriteReq miss latency ((Tick/Count))
system.cpu.dcache.WriteReq.mshrHits::cpu.data            4                       # number of WriteReq MSHR hits (Count)
system.cpu.dcache.WriteReq.mshrHits::total            4                       # number of WriteReq MSHR hits (Count)
system.cpu.dcache.WriteReq.mshrMisses::cpu.data          857                       # number of WriteReq MSHR misses (Count)
system.cpu.dcache.WriteReq.mshrMisses::total          857                       # number of WriteReq MSHR misses (Count)
system.cpu.dcache.WriteReq.mshrMissLatency::cpu.data     54921998                       # number of WriteReq MSHR miss ticks (Tick)
system.cpu.dcache.WriteReq.mshrMissLatency::total     54921998                       # number of WriteReq MSHR miss ticks (Tick)
system.cpu.dcache.WriteReq.mshrMissRate::cpu.data     0.001043                       # mshr miss rate for WriteReq accesses (Ratio)
system.cpu.dcache.WriteReq.mshrMissRate::total     0.001043                       # mshr miss rate for WriteReq accesses (Ratio)
system.cpu.dcache.WriteReq.avgMshrMissLatency::cpu.data 64086.345391                       # average WriteReq mshr miss latency ((Tick/Count))
system.cpu.dcache.WriteReq.avgMshrMissLatency::total 64086.345391                       # average WriteReq mshr miss latency ((Tick/Count))
system.cpu.dcache.power_state.pwrStateResidencyTicks::UNDEFINED   1992649500                       # Cumulative time (in ticks) in various power states (Tick)
system.cpu.dcache.tags.tagsInUse           504.257710                       # Average ticks per tags in use ((Tick/Count))
system.cpu.dcache.tags.totalRefs              2047894                       # Total number of references to valid blocks. (Count)
system.cpu.dcache.tags.sampledRefs               3970                       # Sample count of references to valid blocks. (Count)
system.cpu.dcache.tags.avgRefs             515.842317                       # Average number of references to valid blocks. ((Count/Count))
system.cpu.dcache.tags.warmupTick              168000                       # The tick when the warmup percentage was hit. (Tick)
system.cpu.dcache.tags.occupancies::cpu.data   504.257710                       # Average occupied blocks per tick, per requestor ((Count/Tick))
system.cpu.dcache.tags.avgOccs::cpu.data     0.984878                       # Average percentage of cache occupancy ((Ratio/Tick))
system.cpu.dcache.tags.avgOccs::total        0.984878                       # Average percentage of cache occupancy ((Ratio/Tick))
system.cpu.dcache.tags.occupanciesTaskId::1024          512                       # Occupied blocks per task id (Count)
system.cpu.dcache.tags.ageTaskId_1024::0           64                       # Occupied blocks per task id, per block age (Count)
system.cpu.dcache.tags.ageTaskId_1024::1            7                       # Occupied blocks per task id, per block age (Count)
system.cpu.dcache.tags.ageTaskId_1024::2           68                       # Occupied blocks per task id, per block age (Count)
system.cpu.dcache.tags.ageTaskId_1024::3          373                       # Occupied blocks per task id, per block age (Count)
system.cpu.dcache.tags.ratioOccsTaskId::1024            1                       # Ratio of occupied blocks and all blocks, per task id (Ratio)
system.cpu.dcache.tags.tagAccesses            8238138                       # Number of tag accesses (Count)
system.cpu.dcache.tags.dataAccesses           8238138                       # Number of data accesses (Count)
system.cpu.dcache.tags.power_state.pwrStateResidencyTicks::UNDEFINED   1992649500                       # Cumulative time (in ticks) in various power states (Tick)
system.cpu.decode.idleCycles                  1569788                       # Number of cycles decode is idle (Cycle)
system.cpu.decode.blockedCycles                337051                       # Number of cycles decode is blocked (Cycle)
system.cpu.decode.runCycles                   1825495                       # Number of cycles decode is running (Cycle)
system.cpu.decode.unblockCycles                 42130                       # Number of cycles decode is unblocking (Cycle)
system.cpu.decode.squashCycles                  26385                       # Number of cycles decode is squashing (Cycle)
system.cpu.decode.branchResolved               536538                       # Number of times decode resolved a branch (Count)
system.cpu.decode.branchMispred                  6950                       # Number of times decode detected a branch misprediction (Count)
system.cpu.decode.decodedInsts               11665948                       # Number of instructions handled by decode (Count)
system.cpu.decode.squashedInsts                 34701                       # Number of squashed instructions handled by decode (Count)
system.cpu.fetch.icacheStallCycles            1576545                       # Number of cycles fetch is stalled on an Icache miss (Cycle)
system.cpu.fetch.insts                        6389919                       # Number of instructions fetch has processed (Count)
system.cpu.fetch.branches                     1319053                       # Number of branches that fetch encountered (Count)
system.cpu.fetch.predictedBranches             686838                       # Number of branches that fetch has predicted taken (Count)
system.cpu.fetch.cycles                       2182319                       # Number of cycles fetch has run and was not squashing or blocked (Cycle)
system.cpu.fetch.squashCycles                   66366                       # Number of cycles fetch has spent squashing (Cycle)
system.cpu.fetch.miscStallCycles                 1106                       # Number of cycles fetch has spent waiting on interrupts, or bad addresses, or out of MSHRs (Cycle)
system.cpu.fetch.pendingTrapStallCycles          7696                       # Number of stall cycles due to pending traps (Cycle)
system.cpu.fetch.cacheLines                    830213                       # Number of cache lines fetched (Count)
system.cpu.fetch.icacheSquashes                 10499                       # Number of outstanding Icache misses that were squashed (Count)
system.cpu.fetch.nisnDist::samples            3800849                       # Number of instructions fetched each cycle (Total) (Count)
system.cpu.fetch.nisnDist::mean              3.129004                       # Number of instructions fetched each cycle (Total) (Count)
system.cpu.fetch.nisnDist::stdev             3.535290                       # Number of instructions fetched each cycle (Total) (Count)
system.cpu.fetch.nisnDist::underflows               0      0.00%      0.00% # Number of instructions fetched each cycle (Total) (Count)
system.cpu.fetch.nisnDist::0                  1871541     49.24%     49.24% # Number of instructions fetched each cycle (Total) (Count)
system.cpu.fetch.nisnDist::1                   143665      3.78%     53.02% # Number of instructions fetched each cycle (Total) (Count)
system.cpu.fetch.nisnDist::2                    97347      2.56%     55.58% # Number of instructions fetched each cycle (Total) (Count)
system.cpu.fetch.nisnDist::3                   120963      3.18%     58.76% # Number of instructions fetched each cycle (Total) (Count)
system.cpu.fetch.nisnDist::4                   178295      4.69%     63.45% # Number of instructions fetched each cycle (Total) (Count)
system.cpu.fetch.nisnDist::5                   113089      2.98%     66.43% # Number of instructions fetched each cycle (Total) (Count)
system.cpu.fetch.nisnDist::6                    86703      2.28%     68.71% # Number of instructions fetched each cycle (Total) (Count)
system.cpu.fetch.nisnDist::7                   121188      3.19%     71.90% # Number of instructions fetched each cycle (Total) (Count)
system.cpu.fetch.nisnDist::8                  1068058     28.10%    100.00% # Number of instructions fetched each cycle (Total) (Count)
system.cpu.fetch.nisnDist::overflows                0      0.00%    100.00% # Number of instructions fetched each cycle (Total) (Count)
system.cpu.fetch.nisnDist::min_value                0                       # Number of instructions fetched each cycle (Total) (Count)
system.cpu.fetch.nisnDist::max_value                8                       # Number of instructions fetched each cycle (Total) (Count)
system.cpu.fetch.nisnDist::total              3800849                       # Number of instructions fetched each cycle (Total) (Count)
system.cpu.fetch.branchRate                  0.330980                       # Number of branch fetches per cycle (Ratio)
system.cpu.fetch.rate                        1.603372                       # Number of inst fetches per cycle ((Count/Cycle))
system.cpu.icache.demandHits::cpu.inst         796530                       # number of demand (read+write) hits (Count)
system.cpu.icache.demandHits::total            796530                       # number of demand (read+write) hits (Count)
system.cpu.icache.overallHits::cpu.inst        796530                       # number of overall hits (Count)
system.cpu.icache.overallHits::total           796530                       # number of overall hits (Count)
system.cpu.icache.demandMisses::cpu.inst        33683                       # number of demand (read+write) misses (Count)
system.cpu.icache.demandMisses::total           33683                       # number of demand (read+write) misses (Count)
system.cpu.icache.overallMisses::cpu.inst        33683                       # number of overall misses (Count)
system.cpu.icache.overallMisses::total          33683                       # number of overall misses (Count)
system.cpu.icache.demandMissLatency::cpu.inst    569377000                       # number of demand (read+write) miss ticks (Tick)
system.cpu.icache.demandMissLatency::total    569377000                       # number of demand (read+write) miss ticks (Tick)
system.cpu.icache.overallMissLatency::cpu.inst    569377000                       # number of overall miss ticks (Tick)
system.cpu.icache.overallMissLatency::total    569377000                       # number of overall miss ticks (Tick)
system.cpu.icache.demandAccesses::cpu.inst       830213                       # number of demand (read+write) accesses (Count)
system.cpu.icache.demandAccesses::total        830213                       # number of demand (read+write) accesses (Count)
system.cpu.icache.overallAccesses::cpu.inst       830213                       # number of overall (read+write) accesses (Count)
system.cpu.icache.overallAccesses::total       830213                       # number of overall (read+write) accesses (Count)
system.cpu.icache.demandMissRate::cpu.inst     0.040572                       # miss rate for demand accesses (Ratio)
system.cpu.icache.demandMissRate::total      0.040572                       # miss rate for demand accesses (Ratio)
system.cpu.icache.overallMissRate::cpu.inst     0.040572                       # miss rate for overall accesses (Ratio)
system.cpu.icache.overallMissRate::total     0.040572                       # miss rate for overall accesses (Ratio)
system.cpu.icache.demandAvgMissLatency::cpu.inst 16903.987175                       # average overall miss latency in ticks ((Tick/Count))
system.cpu.icache.demandAvgMissLatency::total 16903.987175                       # average overall miss latency in ticks ((Tick/Count))
system.cpu.icache.overallAvgMissLatency::cpu.inst 16903.987175                       # average overall miss latency ((Tick/Count))
system.cpu.icache.overallAvgMissLatency::total 16903.987175                       # average overall miss latency ((Tick/Count))
system.cpu.icache.blockedCycles::no_mshrs          363                       # number of cycles access was blocked (Cycle)
system.cpu.icache.blockedCycles::no_targets            0                       # number of cycles access was blocked (Cycle)
system.cpu.icache.blockedCauses::no_mshrs            4                       # number of times access was blocked (Count)
system.cpu.icache.blockedCauses::no_targets            0                       # number of times access was blocked (Count)
system.cpu.icache.avgBlocked::no_mshrs      90.750000                       # average number of cycles each access was blocked ((Cycle/Count))
system.cpu.icache.avgBlocked::no_targets          nan                       # average number of cycles each access was blocked ((Cycle/Count))
system.cpu.icache.writebacks::writebacks        31543                       # number of writebacks (Count)
system.cpu.icache.writebacks::total             31543                       # number of writebacks (Count)
system.cpu.icache.demandMshrHits::cpu.inst         1882                       # number of demand (read+write) MSHR hits (Count)
system.cpu.icache.demandMshrHits::total          1882                       # number of demand (read+write) MSHR hits (Count)
system.cpu.icache.overallMshrHits::cpu.inst         1882                       # number of overall MSHR hits (Count)
system.cpu.icache.overallMshrHits::total         1882                       # number of overall MSHR hits (Count)
system.cpu.icache.demandMshrMisses::cpu.inst        31801                       # number of demand (read+write) MSHR misses (Count)
system.cpu.icache.demandMshrMisses::total        31801                       # number of demand (read+write) MSHR misses (Count)
system.cpu.icache.overallMshrMisses::cpu.inst        31801                       # number of overall MSHR misses (Count)
system.cpu.icache.overallMshrMisses::total        31801                       # number of overall MSHR misses (Count)
system.cpu.icache.demandMshrMissLatency::cpu.inst    500110500                       # number of demand (read+write) MSHR miss ticks (Tick)
system.cpu.icache.demandMshrMissLatency::total    500110500                       # number of demand (read+write) MSHR miss ticks (Tick)
system.cpu.icache.overallMshrMissLatency::cpu.inst    500110500                       # number of overall MSHR miss ticks (Tick)
system.cpu.icache.overallMshrMissLatency::total    500110500                       # number of overall MSHR miss ticks (Tick)
system.cpu.icache.demandMshrMissRate::cpu.inst     0.038305                       # mshr miss ratio for demand accesses (Ratio)
system.cpu.icache.demandMshrMissRate::total     0.038305                       # mshr miss ratio for demand accesses (Ratio)
system.cpu.icache.overallMshrMissRate::cpu.inst     0.038305                       # mshr miss ratio for overall accesses (Ratio)
system.cpu.icache.overallMshrMissRate::total     0.038305                       # mshr miss ratio for overall accesses (Ratio)
system.cpu.icache.demandAvgMshrMissLatency::cpu.inst 15726.250747                       # average overall mshr miss latency ((Tick/Count))
system.cpu.icache.demandAvgMshrMissLatency::total 15726.250747                       # average overall mshr miss latency ((Tick/Count))
system.cpu.icache.overallAvgMshrMissLatency::cpu.inst 15726.250747                       # average overall mshr miss latency ((Tick/Count))
system.cpu.icache.overallAvgMshrMissLatency::total 15726.250747                       # average overall mshr miss latency ((Tick/Count))
system.cpu.icache.replacements                  31543                       # number of replacements (Count)
system.cpu.icache.ReadReq.hits::cpu.inst       796530                       # number of ReadReq hits (Count)
system.cpu.icache.ReadReq.hits::total          796530                       # number of ReadReq hits (Count)
system.cpu.icache.ReadReq.misses::cpu.inst        33683                       # number of ReadReq misses (Count)
system.cpu.icache.ReadReq.misses::total         33683                       # number of ReadReq misses (Count)
system.cpu.icache.ReadReq.missLatency::cpu.inst    569377000                       # number of ReadReq miss ticks (Tick)
system.cpu.icache.ReadReq.missLatency::total    569377000                       # number of ReadReq miss ticks (Tick)
system.cpu.icache.ReadReq.accesses::cpu.inst       830213                       # number of ReadReq accesses(hits+misses) (Count)
system.cpu.icache.ReadReq.accesses::total       830213                       # number of ReadReq accesses(hits+misses) (Count)
system.cpu.icache.ReadReq.missRate::cpu.inst     0.040572                       # miss rate for ReadReq accesses (Ratio)
system.cpu.icache.ReadReq.missRate::total     0.040572                       # miss rate for ReadReq accesses (Ratio)
system.cpu.icache.ReadReq.avgMissLatency::cpu.inst 16903.987175                       # average ReadReq miss latency ((Tick/Count))
system.cpu.icache.ReadReq.avgMissLatency::total 16903.987175                       # average ReadReq miss latency ((Tick/Count))
system.cpu.icache.ReadReq.mshrHits::cpu.inst         1882                       # number of ReadReq MSHR hits (Count)
system.cpu.icache.ReadReq.mshrHits::total         1882                       # number of ReadReq MSHR hits (Count)
system.cpu.icache.ReadReq.mshrMisses::cpu.inst        31801                       # number of ReadReq MSHR misses (Count)
system.cpu.icache.ReadReq.mshrMisses::total        31801                       # number of ReadReq MSHR misses (Count)
system.cpu.icache.ReadReq.mshrMissLatency::cpu.inst    500110500                       # number of ReadReq MSHR miss ticks (Tick)
system.cpu.icache.ReadReq.mshrMissLatency::total    500110500                       # number of ReadReq MSHR miss ticks (Tick)
system.cpu.icache.ReadReq.mshrMissRate::cpu.inst     0.038305                       # mshr miss rate for ReadReq accesses (Ratio)
system.cpu.icache.ReadReq.mshrMissRate::total     0.038305                       # mshr miss rate for ReadReq accesses (Ratio)
system.cpu.icache.ReadReq.avgMshrMissLatency::cpu.inst 15726.250747                       # average ReadReq mshr miss latency ((Tick/Count))
system.cpu.icache.ReadReq.avgMshrMissLatency::total 15726.250747                       # average ReadReq mshr miss latency ((Tick/Count))
system.cpu.icache.power_state.pwrStateResidencyTicks::UNDEFINED   1992649500                       # Cumulative time (in ticks) in various power states (Tick)
system.cpu.icache.tags.tagsInUse           254.624737                       # Average ticks per tags in use ((Tick/Count))
system.cpu.icache.tags.totalRefs               828330                       # Total number of references to valid blocks. (Count)
system.cpu.icache.tags.sampledRefs              31800                       # Sample count of references to valid blocks. (Count)
system.cpu.icache.tags.avgRefs              26.048113                       # Average number of references to valid blocks. ((Count/Count))
system.cpu.icache.tags.warmupTick               82000                       # The tick when the warmup percentage was hit. (Tick)
system.cpu.icache.tags.occupancies::cpu.inst   254.624737                       # Average occupied blocks per tick, per requestor ((Count/Tick))
system.cpu.icache.tags.avgOccs::cpu.inst     0.994628                       # Average percentage of cache occupancy ((Ratio/Tick))
system.cpu.icache.tags.avgOccs::total        0.994628                       # Average percentage of cache occupancy ((Ratio/Tick))
system.cpu.icache.tags.occupanciesTaskId::1024          256                       # Occupied blocks per task id (Count)
system.cpu.icache.tags.ageTaskId_1024::0          127                       # Occupied blocks per task id, per block age (Count)
system.cpu.icache.tags.ageTaskId_1024::3          129                       # Occupied blocks per task id, per block age (Count)
system.cpu.icache.tags.ratioOccsTaskId::1024            1                       # Ratio of occupied blocks and all blocks, per task id (Ratio)
system.cpu.icache.tags.tagAccesses            3352652                       # Number of tag accesses (Count)
system.cpu.icache.tags.dataAccesses           3352652                       # Number of data accesses (Count)
system.cpu.icache.tags.power_state.pwrStateResidencyTicks::UNDEFINED   1992649500                       # Cumulative time (in ticks) in various power states (Tick)
system.cpu.iew.idleCycles                           0                       # Number of cycles IEW is idle (Cycle)
system.cpu.iew.squashCycles                     26385                       # Number of cycles IEW is squashing (Cycle)
system.cpu.iew.blockCycles                     199341                       # Number of cycles IEW is blocking (Cycle)
system.cpu.iew.unblockCycles                     7040                       # Number of cycles IEW is unblocking (Cycle)
system.cpu.iew.dispatchedInsts               11324834                       # Number of instructions dispatched to IQ (Count)
system.cpu.iew.dispSquashedInsts                 8519                       # Number of squashed instructions skipped by dispatch (Count)
system.cpu.iew.dispLoadInsts                  1575265                       # Number of dispatched load instructions (Count)
system.cpu.iew.dispStoreInsts                  876591                       # Number of dispatched store instructions (Count)
system.cpu.iew.dispNonSpecInsts                    68                       # Number of dispatched non-speculative instructions (Count)
system.cpu.iew.iqFullEvents                      1100                       # Number of times the IQ has become full, causing a stall (Count)
system.cpu.iew.lsqFullEvents                     5456                       # Number of times the LSQ has become full, causing a stall (Count)
system.cpu.iew.memOrderViolationEvents            211                       # Number of memory order violations (Count)
system.cpu.iew.predictedTakenIncorrect           8413                       # Number of branches that were predicted taken incorrectly (Count)
system.cpu.iew.predictedNotTakenIncorrect        19902                       # Number of branches that were predicted not taken incorrectly (Count)
system.cpu.iew.branchMispredicts                28315                       # Number of branch mispredicts detected at execute (Count)
system.cpu.iew.instsToCommit                 10993095                       # Cumulative count of insts sent to commit (Count)
system.cpu.iew.writebackCount                10977538                       # Cumulative count of insts written-back (Count)
system.cpu.iew.producerInst                   7647040                       # Number of instructions producing a value (Count)
system.cpu.iew.consumerInst                  12250242                       # Number of instructions consuming a value (Count)
system.cpu.iew.wbRate                        2.754507                       # Insts written-back per cycle ((Count/Cycle))
system.cpu.iew.wbFanout                      0.624236                       # Average fanout of values written-back ((Count/Count))
system.cpu.interrupts.clk_domain.clock           8000                       # Clock period in ticks (Tick)
system.cpu.l2cache.demandHits::cpu.inst         30390                       # number of demand (read+write) hits (Count)
system.cpu.l2cache.demandHits::cpu.data           944                       # number of demand (read+write) hits (Count)
system.cpu.l2cache.demandHits::total            31334                       # number of demand (read+write) hits (Count)
system.cpu.l2cache.overallHits::cpu.inst        30390                       # number of overall hits (Count)
system.cpu.l2cache.overallHits::cpu.data          944                       # number of overall hits (Count)
system.cpu.l2cache.overallHits::total           31334                       # number of overall hits (Count)
system.cpu.l2cache.demandMisses::cpu.inst         1410                       # number of demand (read+write) misses (Count)
system.cpu.l2cache.demandMisses::cpu.data         3026                       # number of demand (read+write) misses (Count)
system.cpu.l2cache.demandMisses::total           4436                       # number of demand (read+write) misses (Count)
system.cpu.l2cache.overallMisses::cpu.inst         1410                       # number of overall misses (Count)
system.cpu.l2cache.overallMisses::cpu.data         3026                       # number of overall misses (Count)
system.cpu.l2cache.overallMisses::total          4436                       # number of overall misses (Count)
system.cpu.l2cache.demandMissLatency::cpu.inst    100308000                       # number of demand (read+write) miss ticks (Tick)
system.cpu.l2cache.demandMissLatency::cpu.data    213065000                       # number of demand (read+write) miss ticks (Tick)
system.cpu.l2cache.demandMissLatency::total    313373000                       # number of demand (read+write) miss ticks (Tick)
system.cpu.l2cache.overallMissLatency::cpu.inst    100308000                       # number of overall miss ticks (Tick)
system.cpu.l2cache.overallMissLatency::cpu.data    213065000                       # number of overall miss ticks (Tick)
system.cpu.l2cache.overallMissLatency::total    313373000                       # number of overall miss ticks (Tick)
system.cpu.l2cache.demandAccesses::cpu.inst        31800                       # number of demand (read+write) accesses (Count)
system.cpu.l2cache.demandAccesses::cpu.data         3970                       # number of demand (read+write) accesses (Count)
system.cpu.l2cache.demandAccesses::total        35770                       # number of demand (read+write) accesses (Count)
system.cpu.l2cache.overallAccesses::cpu.inst        31800                       # number of overall (read+write) accesses (Count)
system.cpu.l2cache.overallAccesses::cpu.data         3970                       # number of overall (read+write) accesses (Count)
system.cpu.l2cache.overallAccesses::total        35770                       # number of overall (read+write) accesses (Count)
system.cpu.l2cache.demandMissRate::cpu.inst     0.044340                       # miss rate for demand accesses (Ratio)
system.cpu.l2cache.demandMissRate::cpu.data     0.762217                       # miss rate for demand accesses (Ratio)
system.cpu.l2cache.demandMissRate::total     0.124015                       # miss rate for demand accesses (Ratio)
system.cpu.l2cache.overallMissRate::cpu.inst     0.044340                       # miss rate for overall accesses (Ratio)
system.cpu.l2cache.overallMissRate::cpu.data     0.762217                       # miss rate for overall accesses (Ratio)
system.cpu.l2cache.overallMissRate::total     0.124015                       # miss rate for overall accesses (Ratio)
system.cpu.l2cache.demandAvgMissLatency::cpu.inst 71140.425532                       # average overall miss latency in ticks ((Tick/Count))
system.cpu.l2cache.demandAvgMissLatency::cpu.data 70411.434237                       # average overall miss latency in ticks ((Tick/Count))
system.cpu.l2cache.demandAvgMissLatency::total 70643.146979                       # average overall miss latency in ticks ((Tick/Count))
system.cpu.l2cache.overallAvgMissLatency::cpu.inst 71140.425532                       # average overall miss latency ((Tick/Count))
system.cpu.l2cache.overallAvgMissLatency::cpu.data 70411.434237                       # average overall miss latency ((Tick/Count))
system.cpu.l2cache.overallAvgMissLatency::total 70643.146979                       # average overall miss latency ((Tick/Count))
system.cpu.l2cache.blockedCycles::no_mshrs            0                       # number of cycles access was blocked (Cycle)
system.cpu.l2cache.blockedCycles::no_targets            0                       # number of cycles access was blocked (Cycle)
system.cpu.l2cache.blockedCauses::no_mshrs            0                       # number of times access was blocked (Count)
system.cpu.l2cache.blockedCauses::no_targets            0                       # number of times access was blocked (Count)
system.cpu.l2cache.avgBlocked::no_mshrs           nan                       # average number of cycles each access was blocked ((Cycle/Count))
system.cpu.l2cache.avgBlocked::no_targets          nan                       # average number of cycles each access was blocked ((Cycle/Count))
system.cpu.l2cache.writebacks::writebacks            2                       # number of writebacks (Count)
system.cpu.l2cache.writebacks::total                2                       # number of writebacks (Count)
system.cpu.l2cache.demandMshrMisses::cpu.inst         1410                       # number of demand (read+write) MSHR misses (Count)
[...]
system.mem_ctrl.dram.numReads::cpu.inst          1409                       # Number of read requests responded to by this memory (Count)
system.mem_ctrl.dram.numReads::cpu.data          3026                       # Number of read requests responded to by this memory (Count)
system.mem_ctrl.dram.numReads::total             4435                       # Number of read requests responded to by this memory (Count)
system.mem_ctrl.dram.numWrites::writebacks            2                       # Number of write requests responded to by this memory (Count)
system.mem_ctrl.dram.numWrites::total               2                       # Number of write requests responded to by this memory (Count)
system.mem_ctrl.dram.bwRead::cpu.inst        45254321                       # Total read bandwidth from this memory ((Byte/Second))
system.mem_ctrl.dram.bwRead::cpu.data        97189195                       # Total read bandwidth from this memory ((Byte/Second))
system.mem_ctrl.dram.bwRead::total          142443516                       # Total read bandwidth from this memory ((Byte/Second))
system.mem_ctrl.dram.bwInstRead::cpu.inst     45254321                       # Instruction read bandwidth from this memory ((Byte/Second))
system.mem_ctrl.dram.bwInstRead::total       45254321                       # Instruction read bandwidth from this memory ((Byte/Second))
system.mem_ctrl.dram.bwWrite::writebacks        64236                       # Write bandwidth from this memory ((Byte/Second))
system.mem_ctrl.dram.bwWrite::total             64236                       # Write bandwidth from this memory ((Byte/Second))
system.mem_ctrl.dram.bwTotal::writebacks        64236                       # Total bandwidth to/from this memory ((Byte/Second))
system.mem_ctrl.dram.bwTotal::cpu.inst       45254321                       # Total bandwidth to/from this memory ((Byte/Second))
system.mem_ctrl.dram.bwTotal::cpu.data       97189195                       # Total bandwidth to/from this memory ((Byte/Second))
system.mem_ctrl.dram.bwTotal::total         142507752                       # Total bandwidth to/from this memory ((Byte/Second))
system.mem_ctrl.dram.readBursts                  4435                       # Number of DRAM read bursts (Count)
system.mem_ctrl.dram.writeBursts                    0                       # Number of DRAM write bursts (Count)
system.mem_ctrl.dram.perBankRdBursts::0           286                       # Per bank write bursts (Count)
system.mem_ctrl.dram.perBankRdBursts::1           289                       # Per bank write bursts (Count)
system.mem_ctrl.dram.perBankRdBursts::2           287                       # Per bank write bursts (Count)
system.mem_ctrl.dram.perBankRdBursts::3           284                       # Per bank write bursts (Count)
system.mem_ctrl.dram.perBankRdBursts::4           279                       # Per bank write bursts (Count)
system.mem_ctrl.dram.perBankRdBursts::5           285                       # Per bank write bursts (Count)
system.mem_ctrl.dram.perBankRdBursts::6           213                       # Per bank write bursts (Count)
system.mem_ctrl.dram.perBankRdBursts::7           237                       # Per bank write bursts (Count)
system.mem_ctrl.dram.perBankRdBursts::8           341                       # Per bank write bursts (Count)
system.mem_ctrl.dram.perBankRdBursts::9           365                       # Per bank write bursts (Count)
system.mem_ctrl.dram.perBankRdBursts::10          380                       # Per bank write bursts (Count)
system.mem_ctrl.dram.perBankRdBursts::11          285                       # Per bank write bursts (Count)
system.mem_ctrl.dram.perBankRdBursts::12          218                       # Per bank write bursts (Count)
system.mem_ctrl.dram.perBankRdBursts::13          194                       # Per bank write bursts (Count)
system.mem_ctrl.dram.perBankRdBursts::14          210                       # Per bank write bursts (Count)
system.mem_ctrl.dram.perBankRdBursts::15          282                       # Per bank write bursts (Count)
system.mem_ctrl.dram.perBankWrBursts::0             0                       # Per bank write bursts (Count)
system.mem_ctrl.dram.perBankWrBursts::1             0                       # Per bank write bursts (Count)
system.mem_ctrl.dram.perBankWrBursts::2             0                       # Per bank write bursts (Count)
system.mem_ctrl.dram.perBankWrBursts::3             0                       # Per bank write bursts (Count)
system.mem_ctrl.dram.perBankWrBursts::4             0                       # Per bank write bursts (Count)
system.mem_ctrl.dram.perBankWrBursts::5             0                       # Per bank write bursts (Count)
system.mem_ctrl.dram.perBankWrBursts::6             0                       # Per bank write bursts (Count)
system.mem_ctrl.dram.perBankWrBursts::7             0                       # Per bank write bursts (Count)
system.mem_ctrl.dram.perBankWrBursts::8             0                       # Per bank write bursts (Count)
system.mem_ctrl.dram.perBankWrBursts::9             0                       # Per bank write bursts (Count)
system.mem_ctrl.dram.perBankWrBursts::10            0                       # Per bank write bursts (Count)
system.mem_ctrl.dram.perBankWrBursts::11            0                       # Per bank write bursts (Count)
system.mem_ctrl.dram.perBankWrBursts::12            0                       # Per bank write bursts (Count)
system.mem_ctrl.dram.perBankWrBursts::13            0                       # Per bank write bursts (Count)
system.mem_ctrl.dram.perBankWrBursts::14            0                       # Per bank write bursts (Count)
system.mem_ctrl.dram.perBankWrBursts::15            0                       # Per bank write bursts (Count)
system.mem_ctrl.dram.totQLat                 27451000                       # Total ticks spent queuing (Tick)
system.mem_ctrl.dram.totBusLat               22175000                       # Total ticks spent in databus transfers (Tick)
system.mem_ctrl.dram.totMemAccLat           110607250                       # Total ticks spent from burst creation until serviced by the DRAM (Tick)
system.mem_ctrl.dram.avgQLat                  6189.63                       # Average queueing delay per DRAM burst ((Tick/Count))
system.mem_ctrl.dram.avgBusLat                5000.00                       # Average bus latency per DRAM burst ((Tick/Count))
system.mem_ctrl.dram.avgMemAccLat            24939.63                       # Average memory access latency per DRAM burst ((Tick/Count))
system.mem_ctrl.dram.readRowHits                 3767                       # Number of row buffer hits during reads (Count)
system.mem_ctrl.dram.writeRowHits                   0                       # Number of row buffer hits during writes (Count)
system.mem_ctrl.dram.readRowHitRate             84.94                       # Row buffer hit rate for reads (Ratio)
system.mem_ctrl.dram.writeRowHitRate              nan                       # Row buffer hit rate for writes (Ratio)
system.mem_ctrl.dram.bytesPerActivate::samples          656                       # Bytes accessed per row activation (Byte)
system.mem_ctrl.dram.bytesPerActivate::mean   427.317073                       # Bytes accessed per row activation (Byte)
system.mem_ctrl.dram.bytesPerActivate::gmean   259.521496                       # Bytes accessed per row activation (Byte)
system.mem_ctrl.dram.bytesPerActivate::stdev   377.408985                       # Bytes accessed per row activation (Byte)
system.mem_ctrl.dram.bytesPerActivate::0-127          165     25.15%     25.15% # Bytes accessed per row activation (Byte)
system.mem_ctrl.dram.bytesPerActivate::128-255          148     22.56%     47.71% # Bytes accessed per row activation (Byte)
system.mem_ctrl.dram.bytesPerActivate::256-383           65      9.91%     57.62% # Bytes accessed per row activation (Byte)
system.mem_ctrl.dram.bytesPerActivate::384-511           40      6.10%     63.72% # Bytes accessed per row activation (Byte)
system.mem_ctrl.dram.bytesPerActivate::512-639           32      4.88%     68.60% # Bytes accessed per row activation (Byte)
system.mem_ctrl.dram.bytesPerActivate::640-767           25      3.81%     72.41% # Bytes accessed per row activation (Byte)
system.mem_ctrl.dram.bytesPerActivate::768-895           27      4.12%     76.52% # Bytes accessed per row activation (Byte)
system.mem_ctrl.dram.bytesPerActivate::896-1023           20      3.05%     79.57% # Bytes accessed per row activation (Byte)
system.mem_ctrl.dram.bytesPerActivate::1024-1151          134     20.43%    100.00% # Bytes accessed per row activation (Byte)
system.mem_ctrl.dram.bytesPerActivate::total          656                       # Bytes accessed per row activation (Byte)
system.mem_ctrl.dram.bytesRead                 283840                       # Total bytes read (Byte)
system.mem_ctrl.dram.bytesWritten                   0                       # Total bytes written (Byte)
system.mem_ctrl.dram.avgRdBW               142.443516                       # Average DRAM read bandwidth in MiBytes/s ((Byte/Second))
system.mem_ctrl.dram.avgWrBW                        0                       # Average DRAM write bandwidth in MiBytes/s ((Byte/Second))
system.mem_ctrl.dram.peakBW                  12800.00                       # Theoretical peak bandwidth in MiByte/s ((Byte/Second))
system.mem_ctrl.dram.busUtil                     1.11                       # Data bus utilization in percentage (Ratio)
system.mem_ctrl.dram.busUtilRead                 1.11                       # Data bus utilization in percentage for reads (Ratio)
system.mem_ctrl.dram.busUtilWrite                0.00                       # Data bus utilization in percentage for writes (Ratio)
system.mem_ctrl.dram.pageHitRate                84.94                       # Row buffer hit rate, read and write combined (Ratio)
system.mem_ctrl.dram.power_state.pwrStateResidencyTicks::UNDEFINED   1992649500                       # Cumulative time (in ticks) in various power states (Tick)
system.mem_ctrl.dram.rank0.actEnergy          2670360                       # Energy for activate commands per rank (pJ) (Joule)
system.mem_ctrl.dram.rank0.preEnergy          1396560                       # Energy for precharge commands per rank (pJ) (Joule)
system.mem_ctrl.dram.rank0.readEnergy        15422400                       # Energy for read commands per rank (pJ) (Joule)
system.mem_ctrl.dram.rank0.writeEnergy              0                       # Energy for write commands per rank (pJ) (Joule)
system.mem_ctrl.dram.rank0.refreshEnergy 156733200.000000                       # Energy for refresh commands per rank (pJ) (Joule)
system.mem_ctrl.dram.rank0.actBackEnergy    149898030                       # Energy for active background per rank (pJ) (Joule)
system.mem_ctrl.dram.rank0.preBackEnergy    638947680                       # Energy for precharge background per rank (pJ) (Joule)
system.mem_ctrl.dram.rank0.actPowerDownEnergy            0                       # Energy for active power-down per rank (pJ) (Joule)
system.mem_ctrl.dram.rank0.prePowerDownEnergy            0                       # Energy for precharge power-down per rank (pJ) (Joule)
system.mem_ctrl.dram.rank0.selfRefreshEnergy            0                       # Energy for self refresh per rank (pJ) (Joule)
system.mem_ctrl.dram.rank0.totalEnergy      965068230                       # Total energy per rank (pJ) (Joule)
system.mem_ctrl.dram.rank0.averagePower    484.314090                       # Core power per rank (mW) (Watt)
system.mem_ctrl.dram.rank0.totalIdleTime            0                       # Total Idle time Per DRAM Rank (Tick)
system.mem_ctrl.dram.rank0.pwrStateTime::IDLE   1659709750                       # Time in different power states (Tick)
system.mem_ctrl.dram.rank0.pwrStateTime::REF     66300000                       # Time in different power states (Tick)
system.mem_ctrl.dram.rank0.pwrStateTime::SREF            0                       # Time in different power states (Tick)
system.mem_ctrl.dram.rank0.pwrStateTime::PRE_PDN            0                       # Time in different power states (Tick)
system.mem_ctrl.dram.rank0.pwrStateTime::ACT    266639750                       # Time in different power states (Tick)
system.mem_ctrl.dram.rank0.pwrStateTime::ACT_PDN            0                       # Time in different power states (Tick)
system.mem_ctrl.dram.rank1.actEnergy          2099160                       # Energy for activate commands per rank (pJ) (Joule)
system.mem_ctrl.dram.rank1.preEnergy          1092960                       # Energy for precharge commands per rank (pJ) (Joule)
system.mem_ctrl.dram.rank1.readEnergy        16243500                       # Energy for read commands per rank (pJ) (Joule)
system.mem_ctrl.dram.rank1.writeEnergy              0                       # Energy for write commands per rank (pJ) (Joule)
system.mem_ctrl.dram.rank1.refreshEnergy 156733200.000000                       # Energy for refresh commands per rank (pJ) (Joule)
system.mem_ctrl.dram.rank1.actBackEnergy    134705820                       # Energy for active background per rank (pJ) (Joule)
system.mem_ctrl.dram.rank1.preBackEnergy    651741120                       # Energy for precharge background per rank (pJ) (Joule)
system.mem_ctrl.dram.rank1.actPowerDownEnergy            0                       # Energy for active power-down per rank (pJ) (Joule)
system.mem_ctrl.dram.rank1.prePowerDownEnergy            0                       # Energy for precharge power-down per rank (pJ) (Joule)
system.mem_ctrl.dram.rank1.selfRefreshEnergy            0                       # Energy for self refresh per rank (pJ) (Joule)
system.mem_ctrl.dram.rank1.totalEnergy      962615760                       # Total energy per rank (pJ) (Joule)
system.mem_ctrl.dram.rank1.averagePower    483.083332                       # Core power per rank (mW) (Watt)
system.mem_ctrl.dram.rank1.totalIdleTime            0                       # Total Idle time Per DRAM Rank (Tick)
system.mem_ctrl.dram.rank1.pwrStateTime::IDLE   1693197250                       # Time in different power states (Tick)
system.mem_ctrl.dram.rank1.pwrStateTime::REF     66300000                       # Time in different power states (Tick)
system.mem_ctrl.dram.rank1.pwrStateTime::SREF            0                       # Time in different power states (Tick)
system.mem_ctrl.dram.rank1.pwrStateTime::PRE_PDN            0                       # Time in different power states (Tick)
system.mem_ctrl.dram.rank1.pwrStateTime::ACT    233152250                       # Time in different power states (Tick)
system.mem_ctrl.dram.rank1.pwrStateTime::ACT_PDN            0                       # Time in different power states (Tick)
system.mem_ctrl.power_state.pwrStateResidencyTicks::UNDEFINED   1992649500                       # Cumulative time (in ticks) in various power states (Tick)
system.membus.transDist::ReadResp                3673                       # Transaction distribution (Count)
system.membus.transDist::WritebackDirty             2                       # Transaction distribution (Count)
system.membus.transDist::CleanEvict                 1                       # Transaction distribution (Count)
system.membus.transDist::ReadExReq                762                       # Transaction distribution (Count)
system.membus.transDist::ReadExResp               762                       # Transaction distribution (Count)
system.membus.transDist::ReadSharedReq           3673                       # Transaction distribution (Count)
system.membus.pktCount_system.cpu.l2cache.mem_side_port::system.mem_ctrl.port         8873                       # Packet count per connected requestor and responder (Count)
system.membus.pktCount_system.cpu.l2cache.mem_side_port::total         8873                       # Packet count per connected requestor and responder (Count)
system.membus.pktCount::total                    8873                       # Packet count per connected requestor and responder (Count)
system.membus.pktSize_system.cpu.l2cache.mem_side_port::system.mem_ctrl.port       283968                       # Cumulative packet size per connected requestor and responder (Byte)
system.membus.pktSize_system.cpu.l2cache.mem_side_port::total       283968                       # Cumulative packet size per connected requestor and responder (Byte)
system.membus.pktSize::total                   283968                       # Cumulative packet size per connected requestor and responder (Byte)
system.membus.snoops                                0                       # Total snoops (Count)
system.membus.snoopTraffic                          0                       # Total snoop traffic (Byte)
system.membus.snoopFanout::samples               4435                       # Request fanout histogram (Count)
system.membus.snoopFanout::mean                     0                       # Request fanout histogram (Count)
system.membus.snoopFanout::stdev                    0                       # Request fanout histogram (Count)
system.membus.snoopFanout::underflows               0      0.00%      0.00% # Request fanout histogram (Count)
system.membus.snoopFanout::0                     4435    100.00%    100.00% # Request fanout histogram (Count)
system.membus.snoopFanout::1                        0      0.00%    100.00% # Request fanout histogram (Count)
system.membus.snoopFanout::overflows                0      0.00%    100.00% # Request fanout histogram (Count)
system.membus.snoopFanout::min_value                0                       # Request fanout histogram (Count)
system.membus.snoopFanout::max_value                0                       # Request fanout histogram (Count)
system.membus.snoopFanout::total                 4435                       # Request fanout histogram (Count)
system.membus.power_state.pwrStateResidencyTicks::UNDEFINED   1992649500                       # Cumulative time (in ticks) in various power states (Tick)
system.membus.reqLayer2.occupancy             2223000                       # Layer occupancy (ticks) (Tick)
system.membus.reqLayer2.utilization               0.0                       # Layer utilization (Ratio)
system.membus.respLayer1.occupancy           12060750                       # Layer occupancy (ticks) (Tick)
system.membus.respLayer1.utilization              0.0                       # Layer utilization (Ratio)
system.membus.snoop_filter.totRequests           4438                       # Total number of requests made to the snoop filter. (Count)
system.membus.snoop_filter.hitSingleRequests            3                       # Number of requests hitting in the snoop filter with a single holder of the requested data. (Count)
system.membus.snoop_filter.hitMultiRequests            0                       # Number of requests hitting in the snoop filter with multiple (>1) holders of the requested data. (Count)
system.membus.snoop_filter.totSnoops                0                       # Total number of snoops made to the snoop filter. (Count)
system.membus.snoop_filter.hitSingleSnoops            0                       # Number of snoops hitting in the snoop filter with a single holder of the requested data. (Count)
system.membus.snoop_filter.hitMultiSnoops            0                       # Number of snoops hitting in the snoop filter with multiple (>1) holders of the requested data. (Count)
system.voltage_domain.voltage                       1                       # Voltage in Volts (Volt)
system.workload.inst.arm                            0                       # number of arm instructions executed (Count)
system.workload.inst.quiesce                        0                       # number of quiesce instructions executed (Count)

---------- End Simulation Statistics   ----------
